
! RIJCOSX CAM-B3LYP def2-TZVP def2/J D3BJ TightSCF CPCM(WATER) LARGEPRINT
%MAXCORE 200000
%SCF
 MAXITER 5000
 END
%TDDFT
 NROOTS 300
 MAXDIM 10
 END
%PAL
 NPROCS 4
 END


* xyz 0 1
  H   29.42814470492054     31.28982168159501     13.26852383903375
  N   29.30636569307621     30.29993690045353     13.12042793290974
  C   28.23484332959092     29.54298923390035     13.51517355933991
  H   27.40168558748972     29.97706029394520     14.04407542260562
  N   28.35833731926661     28.29294600779172     13.17877961158860
  C   29.57582514235417     28.22131880853035     12.53107553918621
  C   30.23758456525839     27.12262173038742     11.91766960342451
  O   29.87053868724437     25.95634143371331     11.83885408157531
  N   31.45082466557668     27.51869373671150     11.35279234513254
  H   31.95252271232421     26.81330530101724     10.81988520457016
  C   31.96480275604665     28.78831001045786     11.36407531551195
  N   33.13361055887183     28.95529040671313     10.74159601788556
  H   33.64584733670781     28.17800760504484     10.37167055810500
  H   33.54727393942396     29.87061921164808     10.70007807106649
  N   31.35519424703612     29.80136623880414     11.93643432184427
  C   30.17443153748176     29.46673402428794     12.48659647254904
  H   32.64702146596432     30.57190227695696     15.65088070684039
  N   32.81373525700510     29.65147262538709     15.27315679663110
  C   33.91591360928236     29.25204480702001     14.56745181477367
  H   34.72958067467461     29.92732486075125     14.35735082952867
  N   33.84579530827667     28.00557924924079     14.20250579093193
  C   32.63239669143024     27.56291171535393     14.68995517368916
  C   32.00212885514210     26.29899024856407     14.59481994806706
  O   32.40333128651285     25.27867527053751     14.03667462680834
  N   30.77001086957438     26.29704565740991     15.24012247046106
  H   30.26245200906165     25.42293687011824     15.20079066303819
  C   30.20560724800352     27.36013843967553     15.88929787936142
  N   29.02583603393471     27.14264690991865     16.49338941017645
  H   28.47487709539858     26.33500333086864     16.25427090866760
  H   28.52863752196474     27.95188892754832     16.82656329252551
  N   30.78255778680959     28.53392001140013     15.96692548424487
  C   31.98036455080734     28.58127171091368     15.36010543045379
  H   37.96564991791632     22.74575384689000      9.93516594686376
  N   36.96166764532667     22.66167382957871      9.97496852805282
  C   36.18947750026116     21.78371012466750      9.26250666816064
  H   36.62735170824813     21.07300922011070      8.58001317391422
  N   34.92010563418460     21.92334645779745      9.50889108540057
  C   34.85149733466060     22.94961931056976     10.43134586776998
  C   33.73563978096040     23.54414735870166     11.08443408113439
  O   32.54720663541229     23.25800584550539     10.97687462098616
  N   34.13703018563220     24.56962966451119     11.93787895669500
  H   33.40893540899328     24.98948395909898     12.51416741301694
  C   35.42468924761638     24.97833127265711     12.14372763519702
  N   35.59117333510420     25.98618106167184     13.01823950719115
  H   34.82774024255998     26.60316925175816     13.21618422768540
  H   36.51265189571875     26.39054855580902     13.05145200064297
  N   36.45806433875077     24.41914874211245     11.55826892595588
  C   36.11797608720199     23.41901362361976     10.72645854621410
  H   38.22812452507385     26.29472556516209      8.46727981789586
  N   37.26245603271330     26.44137950906547      8.71923420009688
  C   36.79041283295290     27.33474676008016      9.64377617571475
  H   37.45295431475283     27.97960701404949     10.19775230670225
  N   35.49593583998155     27.30073353671436      9.74944646486628
  C   35.09311110312677     26.33068548809232      8.85433621391383
  C   33.80544065918535     25.83768465277072      8.54252433958434
  O   32.72061411636317     26.17742750195740      9.02008124351777
  N   33.85663442922163     24.85217248073089      7.56551351894645
  H   32.96264594374416     24.46026462252612      7.29796581328962
  C   34.99548209261671     24.37983159329208      6.97057678464211
  N   34.84627618517199     23.43648892015286      6.02867256526817
  H   33.98027517426059     22.93374813838614      5.92965592857523
  H   35.68186192891645     22.99170570549771      5.68751058018062
  N   36.19139912854583     24.82971262558871      7.26591108613311
  C   36.18718277020455     25.79079938969091      8.20277511127995
  H   34.71081302829076     27.31745924602779      5.10675267725212
  N   34.79751141853873     28.03303214147653      5.81323412371623
  C   36.02376287868907     28.56403577114756      6.10583279596965
  H   36.84410031300704     28.16865469798866      5.52409770841156
  C   36.19292935224448     29.50337621909525      7.04693213861175
  C   37.51808712502096     30.10015076716335      7.37817445989836
  H   37.77288299048938     29.92985155879566      8.42489957657175
  H   37.50739626069821     31.17966891598340      7.22069345445196
  H   38.29864776197061     29.66729615443557      6.75544902184838
  C   35.01893028834985     29.95037280124188      7.77485011438977
  O   35.03426488609369     30.78150303319815      8.67125669415466
  N   33.81908825740067     29.38175908146027      7.38847285195637
  H   32.98032313610302     29.71615683557021      7.84886826390005
  C   33.65453946872798     28.42042713469528      6.43759429337827
  O   32.56232794964259     27.92979392296168      6.16944411426151
  H   33.14613182653490     28.98228904111146      2.71553597373221
  N   34.09460152521807     29.32596721165454      2.72765164196243
  C   35.14300181195682     28.85502697247400      1.98212705526157
  H   35.01638525846362     28.04758999519532      1.27883625939323
  N   36.25265685615317     29.48753005353100      2.22768342077950
  C   35.91878584263059     30.42361726484260      3.18555395623366
  C   36.71530302051649     31.38998418273458      3.86089218570257
  O   37.90883154911772     31.62598113319889      3.73844342739871
  N   35.94826740307256     32.12087866207015      4.77616699283345
  H   36.45650635147234     32.82354596849499      5.29720746018496
  C   34.62255585115764     31.93486425010859      5.04243572087529
  N   34.06774911870399     32.73037022531535      5.97207882080683
  H   34.65294309704910     33.25269999486658      6.60284731916369
  H   33.15246333618348     32.48153742005345      6.30905252956808
  N   33.89324161987416     31.04259835326411      4.41705331317019
  C   34.57892783476929     30.32792638843538      3.50495632542998
  H   26.26718564718916     31.34633312753608      6.69134456605134
  N   26.62778212861433     30.44450910970313      6.42018500114186
  C   25.98065781712959     29.24172974759937      6.52927318440788
  H   24.98108947439828     29.17337117985007      6.92767621737550
  N   26.70422945356450     28.24711661780854      6.10806403104295
  C   27.89341000155899     28.82326732695870      5.70543404981108
  C   29.08483103351022     28.23986119921462      5.19479017794245
  O   29.32686882088393     27.06068980641693      4.96621282534891
  N   30.06196946582688     29.21163151473170      4.96489301253823
  H   30.97366129266512     28.85127356221187      4.70974254889342
  C   29.91743076451045     30.55789416102034      5.15542772002017
  N   30.95682015428253     31.32948393968388      4.81167443160161
  H   31.87522673015100     30.94421722007357      4.64340919022606
  H   30.90359034670519     32.30096817304835      5.06850001382817
  N   28.81482237771350     31.09540730398208      5.62267486040224
  C   27.85527964890497     30.19293208684116      5.89309857459711
  H   26.39090118811148     29.32856925314929     10.35802575385324
  N   27.22435750868081     29.75805269518288      9.98689043802235
  C   27.52170468296060     31.09473059925655      9.98590281550902
  H   26.84096222466161     31.82389995377089     10.39497009704885
  N   28.68054047750566     31.34810746273110      9.45178031768455
  C   29.17174981782516     30.11319704452363      9.07900546285370
  C   30.38600174865533     29.74194808209784      8.45087480138555
  O   31.31907937469984     30.46206983243194      8.08653011605284
  N   30.45708931972436     28.37055367430341      8.24641335096230
  H   31.24069926293200     28.06106159726176      7.65139093329614
  C   29.53236942089325     27.45316737961596      8.65491219795932
  N   29.83641955108661     26.16282913609720      8.41259626392726
  H   30.82297353024748     25.92358613333178      8.39397065234071
  H   29.23230383863313     25.49089097534426      8.85805023353898
  N   28.40783004386329     27.78793106555339      9.23655162075370
  C   28.27199612409433     29.11411103110171      9.40861621638366
*

