
! RIJCOSX CAM-B3LYP def2-TZVP def2/J D3BJ OPT FREQ CPCM(WATER) LARGEPRINT
%MAXCORE 30000
%GEOM
  Constraints
    {B 20 44 C} # G2N7-G5H21
    {B 20 43 C} # G2N7-G5N2
    {B 23 41 C} # G2O6-G5H1
    {B 23 40 C} # G2O6-G5N1
    {B 52 12 2.14 C} # G6N7-G1H21,2.14
    {B 52 11 3.05 C} # G6N7-G1N2,3.05
    {B 55 9 C} # G6O6-G1H1
    {B 55 8 C} # G6O6-G1N1
    {B 133 76 C} # G11O6-T7H3
    {B 133 75 C} # G11O6-T7N3
    {B 78 135 1.99 C} # T7O2-G11H1,1.99
    {B 78 134 2.99 C} # T7O2-G11N1,2.99
    {B 93 122 C} # G8N3-G10H21
    {B 93 121 C} # G8N3-G10N2
    {B 90 121 C} # G8N2-G10N2
    END
 MAXITER 5000
 END
%SCF
 MAXITER 5000
 END
%PAL
 NPROCS 30
 END


* xyz 0 1
   H       30.63000       31.99000       14.12000
   N       30.28000       30.58000       13.84000
   C       29.12000       30.01000       14.31000
   H       28.43000       30.59000       14.91000
   N       28.88000       28.80000       13.90000
   C       29.98000       28.54000       13.08000
   C       30.26000       27.39000       12.30000
   O       29.56000       26.39000       12.20000
   N       31.42000       27.49000       11.55000
   H       31.63000       26.73000       10.91000
   C       32.27000       28.57000       11.64000
   N       33.33000       28.52000       10.83000
   H       33.44000       27.75000       10.18000
   H       33.79000       29.41000       10.70000
   N       31.94000       29.71000       12.27000
   C       30.80000       29.64000       13.00000
   H       30.61000       29.65000       17.81000
   N       31.21000       28.67000       16.89000
   C       32.38000       28.79000       16.19000
   H       33.15000       29.53000       16.32000
   N       32.62000       27.69000       15.53000
   C       31.48000       26.91000       15.64000
   C       31.21000       25.63000       15.09000
   O       31.89000       24.88000       14.39000
   N       29.88000       25.31000       15.31000
   H       29.49000       24.54000       14.78000
   C       29.08000       25.99000       16.20000
   N       27.90000       25.39000       16.43000
   H       27.67000       24.53000       15.96000
   H       27.24000       25.92000       16.98000
   N       29.36000       27.11000       16.87000
   C       30.57000       27.54000       16.44000
   H       38.94000       25.18000       11.11000
   N       37.55000       24.70000       11.03000
   C       37.05000       23.70000       10.24000
   H       37.70000       23.14000        9.57000
   N       35.81000       23.38000       10.43000
   C       35.39000       24.32000       11.36000
   C       34.09000       24.57000       11.86000
   O       33.04000       24.03000       11.51000
   N       34.06000       25.62000       12.76000
   H       33.21000       25.59000       13.31000
   C       35.18000       26.25000       13.27000
   N       35.14000       27.29000       14.11000
   H       34.24000       27.64000       14.40000
   H       36.01000       27.80000       14.18000
   N       36.40000       25.98000       12.79000
   C       36.46000       25.08000       11.77000
   H       38.08000       25.18000        6.76000
   N       36.96000       25.74000        7.54000
   C       36.78000       26.87000        8.28000
   H       37.56000       27.58000        8.51000
   N       35.59000       26.97000        8.80000
   C       34.95000       25.83000        8.33000
   C       33.62000       25.44000        8.65000
   O       32.79000       25.97000        9.39000
   N       33.36000       24.19000        8.11000
   H       32.48000       23.78000        8.37000
   C       34.18000       23.46000        7.27000
   N       33.62000       22.41000        6.66000
   H       32.63000       22.27000        6.81000
   H       34.02000       22.08000        5.79000
   N       35.45000       23.85000        7.05000
   C       35.75000       25.09000        7.50000
   H       34.81000       26.51000        4.33000
   N       35.09000       27.71000        5.14000
   C       36.21000       28.48000        5.10000
   H       36.95000       28.18000        4.36000
   C       36.42000       29.51000        5.94000
   C       37.74000       30.24000        5.85000
   H       38.31000       30.22000        6.78000
   H       37.61000       31.27000        5.51000
   H       38.43000       29.77000        5.16000
   C       35.39000       29.83000        6.91000
   O       35.43000       30.65000        7.83000
   N       34.22000       29.11000        6.75000
   H       33.45000       29.31000        7.38000
   C       34.01000       27.98000        5.97000
   O       32.95000       27.37000        6.05000
   H       31.99000       29.59000        1.76000
   N       33.44000       29.81000        1.65000
   C       34.28000       29.36000        0.66000
   H       33.97000       28.61000       -0.05000
   N       35.54000       29.63000        0.89000
   C       35.47000       30.54000        1.94000
   C       36.51000       31.21000        2.63000
   O       37.72000       31.11000        2.44000
   N       36.08000       32.05000        3.65000
   H       36.79000       32.59000        4.12000
   C       34.80000       32.03000        4.16000
   N       34.50000       32.73000        5.26000
   H       35.18000       33.17000        5.87000
   H       33.54000       32.70000        5.56000
   N       33.82000       31.42000        3.48000
   C       34.20000       30.64000        2.44000
   H       31.16000       34.18000        2.26000
   N       32.52000       34.19000        1.67000
   C       32.77000       33.39000        0.59000
   H       31.91000       32.93000        0.12000
   C       34.02000       33.18000        0.13000
   C       34.26000       32.29000       -1.06000
   H       35.13000       31.64000       -0.95000
   H       34.59000       32.92000       -1.88000
   H       33.36000       31.71000       -1.28000
   C       35.13000       33.78000        0.82000
   O       36.31000       33.74000        0.49000
   N       34.78000       34.65000        1.84000
   H       35.47000       35.20000        2.34000
   C       33.52000       34.77000        2.42000
   O       33.36000       35.44000        3.44000
   H       26.30000       31.62000        6.68000
   N       26.95000       30.31000        6.47000
   C       26.33000       29.09000        6.47000
   H       25.30000       29.08000        6.79000
   N       27.06000       28.12000        6.01000
   C       28.28000       28.71000        5.70000
   C       29.43000       28.12000        5.12000
   O       29.66000       26.96000        4.76000
   N       30.45000       29.04000        4.96000
   H       31.26000       28.71000        4.45000
   C       30.32000       30.39000        5.25000
   N       31.20000       31.33000        4.89000
   H       32.15000       31.12000        4.60000
   H       30.88000       32.28000        4.87000
   N       29.24000       30.92000        5.83000
   C       28.23000       30.04000        6.03000
   H       26.78000       29.57000       11.01000
   N       28.20000       29.80000       10.68000
   C       28.80000       31.01000       10.86000
   H       28.50000       31.77000       11.56000
   N       29.80000       31.16000       10.03000
   C       29.89000       29.97000        9.33000
   C       30.89000       29.49000        8.44000
   O       31.90000       30.05000        8.03000
   N       30.70000       28.18000        8.00000
   H       31.41000       27.73000        7.44000
   C       29.57000       27.48000        8.37000
   N       29.44000       26.23000        7.90000
   H       29.88000       25.88000        7.06000
   H       28.55000       25.80000        8.11000
   N       28.61000       27.88000        9.21000
   C       28.87000       29.12000        9.69000
*
