
! RIJCOSX CAM-B3LYP def2-TZVP def2/J D3BJ TightSCF CPCM(WATER) LARGEPRINT
%MAXCORE 300000
%SCF
 MAXITER 5000
 END
%TDDFT
 NROOTS 300
 MAXDIM 10
 END
%PAL
 NPROCS 3
 END

* xyz 3 1
  H   13.08911283690720      0.74063684761955     -5.83995087632093
  N   12.89566411954197      1.56906716105075     -6.38221179718843
  C   13.67143519851418      2.69491973643427     -6.44809639244686
  H   14.58930861849357      2.78491405963246     -5.88971992246931
  N   13.17078827008506      3.59641238787850     -7.23882325762674
  C   12.00247404685962      3.03909699640142     -7.71978267295376
  C   11.03580865114623      3.52569412104921     -8.62245213595817
  O   11.00235387442810      4.61647493890209     -9.21537121519720
  N   10.02879639185119      2.60519789619928     -8.85311811877434
  H   9.32402437553818      2.91315204506504     -9.54167577362366
  C   9.94485594019227      1.35232670007170     -8.30690388362176
  N   8.92907834820514      0.58972359521593     -8.70885914476422
  H   8.19222663358117      0.94258552467294     -9.29653520696659
  H   8.81377707222540     -0.30559712327353     -8.26543848782916
  N   10.83075314988050      0.90316031332806     -7.44351589678265
  C   11.82435695560202      1.76739473182854     -7.19554243012075
  H   12.59792019626741      4.50839744339637     -3.73498098007415
  N   11.80001881852521      4.71273690785504     -4.31737554737455
  C   10.66331049717822      3.96147905865673     -4.42587767727381
  H   10.52312199950692      3.05677736129460     -3.85607131450541
  N   9.81469101826967      4.46405813210864     -5.27540880381347
  C   10.43100822691282      5.60310813535904     -5.75838873878483
  C   10.02995848157984      6.54520445788497     -6.73060739740586
  O   8.97974861602439      6.59543641096716     -7.38170172867137
  N   10.99520209233669      7.51531810616474     -6.94000453684126
  H   10.73333440096353      8.20451850817168     -7.66544801480084
  C   12.20582112210845      7.59489943010714     -6.31152652388061
  N   12.99358892724691      8.61768521673077     -6.65915078494215
  H   12.78468366841545      9.17917210625716     -7.45983257398430
  H   13.93460988320420      8.61685288221990     -6.30349501309163
  N   12.58196533231434      6.72594464225497     -5.39953341227874
  C   11.67541126185956      5.76405714673383     -5.17072704569922
  H   8.22514217965284     13.79923445654780    -10.63431071018025
  N   7.70007968335499     13.04733594993590    -10.21378625762267
  C   7.99326842684727     12.41515777956476     -9.03559752431408
  H   8.84894214195791     12.69535263953921     -8.44262037080266
  N   7.14542980915263     11.46984647057046     -8.75394559817780
  C   6.24720668942613     11.48471136181997     -9.80091440602809
  C   5.11870654935784     10.66246590434201    -10.05540550903445
  O   4.68487697991107      9.73414063276827     -9.38042875207880
  N   4.49792583357906     11.01715196432460    -11.25149586946086
  H   3.68560273015181     10.46668311026582    -11.49836346512994
  C   4.91485057921867     11.99942579487737    -12.10792750706386
  N   4.17665245189475     12.18851921966738    -13.21484687463004
  H   3.51719826185108     11.48988682630533    -13.51478357073452
  H   4.56006150197525     12.79251727905467    -13.92249435126044
  N   5.95960121572014     12.75356970522358    -11.87403753029281
  C   6.58441494071762     12.45787055522330    -10.72003052560143
  H   13.45304745769435     13.00995425660049    -10.64648704072868
  N   12.90615628425613     12.29206484204144    -10.19602049878256
  C   13.21625294532784     11.65386728377083     -9.02591401273552
  H   14.10611277281276     11.89589444263858     -8.46733321200866
  N   12.33297812600372     10.75636179118126     -8.69976681846464
  C   11.39509830567508     10.80066421956536     -9.71320000646072
  C   10.22293979957896     10.04678633102935     -9.93478717805431
  O   9.71440900062028      9.16896970487047     -9.22801798203598
  N   9.60835728639160     10.38864013798753    -11.12591538578933
  H   8.74519385964631      9.85780586664455    -11.31321959143836
  C   10.03192712029488     11.34187815018332    -12.00848466008467
  N   9.27454926061539     11.51649616432563    -13.09564692216956
  H   8.57096560021326     10.85011625842441    -13.33598654181481
  H   9.63341432443967     12.12193283796050    -13.81438239491463
  N   11.11115479717756     12.06291022254005    -11.79784369526654
  C   11.74784371617989     11.75107305042374    -10.65802977231198
  H   16.54997220102411      9.80426108176680    -10.84998108503137
  N   15.61158411238061      9.49918689310256    -11.05930289175850
  C   14.79027822418744     10.00997948137527    -12.02808796819303
  H   15.10211344488967     10.81913423374625    -12.66853654174240
  N   13.63811037167371      9.41103380035228    -12.06611273970737
  C   13.69815329910418      8.45690840509670    -11.07120586458112
  C   12.76921987064017      7.48302834360894    -10.65316204233214
  O   11.63544872181799      7.24930682305679    -11.09862492936133
  N   13.25578261041370      6.70750509712443     -9.61493611291669
  H   12.60263405571733      5.97386945322331     -9.29650882530855
  C   14.49988948232293      6.81546045571791     -9.05176423147765
  N   14.79988388394307      5.94939741149762     -8.08624775695843
  H   14.14973796406484      5.24353448769103     -7.76758410715915
  H   15.70011735344851      6.02884200791290     -7.64598010701940
  N   15.37214101549934      7.72154281302680     -9.44057160065112
  C   14.92953476676518      8.50004640081118    -10.43739033529831
  H   15.72179023446308      8.57509453934312    -15.74081520632741
  N   15.23311469454738      7.83584486277382    -15.25915265585326
  C   15.58013454321086      7.27955595989626    -14.05487764869605
  H   16.44882774632491      7.61306619551116    -13.51010874025380
  N   14.75824468063187      6.34584793326193    -13.68068093749660
  C   13.81610890162944      6.28426180534591    -14.68870012598263
  C   12.66822043203942      5.47193561266953    -14.84218675040910
  O   12.22409814583096      4.61158199116194    -14.07980803399429
  N   11.99698091297014      5.74951835471128    -16.02987493361042
  H   11.16875278239813      5.19297746945541    -16.19748066791532
  C   12.37354904788202      6.67671990248075    -16.96347479595109
  N   11.62241625645512      6.76255274396847    -18.07112286347587
  H   10.72473843999107      6.31225740862163    -18.12676092005510
  H   11.80130173322270      7.53081298918005    -18.69529598048237
  N   13.42856164350010      7.44010940642031    -16.81716237686131
  C   14.10498501025657      7.20833277880383    -15.67960337614390
  H   8.50053605661447      8.75728458213128    -18.03365492615080
  N   8.42153511581864      8.22145391630678    -17.18269082057003
  C   7.48838005920184      7.25711817527082    -16.91540273665884
  H   6.72941345087534      6.98700077301453    -17.63184384547228
  N   7.63538707862945      6.73987002436824    -15.73163836129497
  C   8.72345530207850      7.39589928339787    -15.18896994829852
  C   9.35360477260506      7.28301980673062    -13.93373959843334
  O   9.07528994582194      6.52787264784683    -12.98916891260468
  N   10.42522286717399      8.14842850268839    -13.80730239415688
  H   10.94020259998967      8.04203651034341    -12.91472307652789
  C   10.85993557176672      9.03034964139716    -14.76084770437118
  N   11.93565718134240      9.75454058444127    -14.46461981788808
  H   12.37069983175456      9.72052592135459    -13.55846153807481
  H   12.25033625040910     10.42783423330229    -15.14164161189776
  N   10.26087096485632      9.15445821789746    -15.92651117199323
  C   9.22110833273171      8.32620236878376    -16.08753183617941
  H   4.65075989278701      9.35051371706126    -16.04296284260430
  N   5.24950511642042      9.36759135370052    -15.23159498937182
  C   6.32838981479619     10.18707173588901    -15.03764922701847
  H   6.62579427504972     10.91724911023064    -15.77286734197839
  N   6.91470544585587      9.97278583664077    -13.89741655501765
  C   6.18963714102690      8.95295840277699    -13.31103201499476
  C   6.33831575206528      8.28605534860527    -12.07591855234609
  O   7.16636939217928      8.47972594280786    -11.17827930755103
  N   5.39029918186586      7.29377079960092    -11.90464427620704
  H   5.50711442073723      6.77283116070239    -11.01723866274992
  C   4.39352913529011      6.97215394120866    -12.78213698189626
  N   3.58364138024263      5.97525521216049    -12.42630159315756
  H   3.67975670210117      5.49588745635130    -11.54828980840716
  H   2.84869168972592      5.71333726716244    -13.06008250467535
  N   4.23355794624891      7.60710857787018    -13.92457038917809
  C   5.14782304330868      8.56473148987899    -14.13805009618807
  H   4.60214417195616      0.19332787068999    -12.74047110560319
  N   5.32989655209246      0.71576933819726    -12.27677212205539
  C   6.03306196861949      0.31865348262638    -11.17099135730588
  H   5.84266998099778     -0.62643001525952    -10.68831719708231
  N   6.91533182037342      1.19753538080120    -10.80043069949603
  C   6.78731593137401      2.23156689225242    -11.70755733854546
  C   7.47039245080828      3.45651900539699    -11.83285300841149
  O   8.37140519850930      3.92396374623761    -11.11672385906916
  N   7.04578771350834      4.18540059173338    -12.92635790836232
  H   7.57611549325625      5.05976787314484    -13.07369351590278
  C   6.09024129663474      3.79722807504829    -13.82694792296018
  N   5.87291682852196      4.61375035516514    -14.85403029369743
  H   6.44396314175304      5.43052004415065    -15.02592577162444
  H   5.18479661815698      4.33861642635009    -15.53354944207225
  N   5.41909703584026      2.67106692754219    -13.69364942877456
  C   5.80423767520987      1.93724715225146    -12.64119639257308
  H   3.59334527012416      1.22468050598734     -8.96433988574065
  N   3.92542932324708      2.15530031406312     -9.16694127863567
  C   3.38873945272949      3.02538470699193    -10.07719716543036
  H   2.52430783336449      2.76749773877126    -10.66748936264491
  N   4.03860259524056      4.15051356057132    -10.13079755971051
  C   5.05921302532899      4.01331894070823     -9.20957741258563
  C   6.09730986719788      4.88884616084188     -8.83019133681018
  O   6.33558239119931      6.03292804497251     -9.23505343920191
  N   6.92713330432114      4.32577619830705     -7.87709299848647
  H   7.68619333908902      4.95161737476701     -7.56764241806792
  C   6.79488143623070      3.07873552484570     -7.33033457168891
  N   7.70475053999474      2.73571312553096     -6.42032207562996
  H   8.46763100226036      3.33638095242590     -6.18989650872991
  H   7.65267347099401      1.81712366392109     -6.01626542913719
  N   5.82301611540780      2.26113557363269     -7.67374595516092
  C   5.00076373415507      2.76840762790476     -8.60362846377607
  H   2.65523602249663      3.38979517346958     -5.90031132939029
  N   3.11085719539951      4.27976767284565     -6.03335189106626
  C   2.67619281091773      5.30819826434499     -6.82682656731230
  H   1.76144849256855      5.23624096825159     -7.39298312882447
  N   3.48148243227307      6.32834083044614     -6.80617196642010
  C   4.50457017061839      5.95203830250825     -5.95924341156021
  C   5.68692079034294      6.63142470831692     -5.56123675036414
  O   6.07470979262512      7.75453492678240     -5.86750726655906
  N   6.46363905684854      5.84034842510234     -4.71339965559122
  H   7.32725618123025      6.26537551188676     -4.40181778725856
  C   6.14655564097188      4.58708631474309     -4.27095087953616
  N   7.00540757342948      4.01582070627085     -3.40239591814297
  H   7.96637285512624      4.32169265792102     -3.40988047141226
  H   6.86575523446873      3.03144560985651     -3.23967771277347
  N   5.05328354631378      3.96423284221763     -4.62941326439447
  C   4.28148165036104      4.67693735274751     -5.47008638631133
  K   10.86487978914112      4.66183725403678    -11.94142423807408
  K   8.99076644318706      6.63533834803452    -10.17041651697348
  K   7.04171579108800      8.59516019653879     -8.24288319458371
*
