
! RIJCOSX CAM-B3LYP def2-TZVP def2/J D3BJ TightSCF CPCM(WATER) LARGEPRINT
%MAXCORE 300000
%SCF
 MAXITER 5000
 END
%TDDFT
 NROOTS 300
 MAXDIM 10
 END
%PAL
 NPROCS 3
 END

* xyz 3 1
  H   12.06203704393386      1.05793965271135     -5.78879893299020
  N   11.96166057664480      1.75692111390613     -6.50913076849593
  C   12.64324791615914      2.94078928624699     -6.59103189852033
  H   13.37757189411443      3.22399643101195     -5.85408718786608
  N   12.29726529502359      3.64388242461567     -7.62815488966563
  C   11.33203641667531      2.88511018570758     -8.26290197503468
  C   10.58260425643683      3.10839454380022     -9.43517500523155
  O   10.58329881051141      4.09944044718977    -10.18037234572429
  N   9.75758337626829      2.04472896772250     -9.73815602538250
  H   9.24029589641583      2.15085304952600    -10.62153443942116
  C   9.60668274118107      0.90563458567686     -8.99724572805454
  N   8.72224899208145      0.01505060452008     -9.45181736046099
  H   8.27282005351685      0.11862619455850    -10.34425599126770
  H   8.64209418584806     -0.85848302957050     -8.95993098205425
  N   10.27982008732448      0.70035445154183     -7.88553470778949
  C   11.11931804684113      1.69927509218457     -7.57446306356469
  H   12.09634782452283      5.28336686487394     -2.78281072847523
  N   11.52291967570195      5.21431110933890     -3.60976976436740
  C   10.64057042515951      4.21065507590035     -3.90393515260588
  H   10.48415139798035      3.37729038220547     -3.23804838204263
  N   10.04351083125093      4.39527038888332     -5.04401781511410
  C   10.55492432214283      5.58268010320028     -5.52651809972720
  C   10.32414541213776      6.28036442647779     -6.73195275954976
  O   9.59166727604596      5.96375004308105     -7.67496356267271
  N   11.04372570720585      7.45834571776248     -6.79732002711174
  H   10.81046735937224      8.04742008572741     -7.61101384396646
  C   11.93203811129531      7.90396265513913     -5.85892232249846
  N   12.52474466188643      9.07415438374908     -6.10529935762596
  H   12.43372673900502      9.53352997564920     -6.99185506760094
  H   13.23070043053189      9.38798532307450     -5.46168688799353
  N   12.19193712721967      7.23492221198309     -4.75671728957113
  C   11.47896155621445      6.10478336632674     -4.63759116216317
  H   9.41576203944648     15.22752280171539     -9.26306442790498
  N   8.94765967248533     14.34734475629651     -9.10937957635769
  C   9.14469002535179     13.49272657475911     -8.05512179341111
  H   9.84784429256469     13.71966073839132     -7.26983696075238
  N   8.40863500690284     12.42483972292639     -8.13412922787749
  C   7.68621635452368     12.58386323074454     -9.30104718738876
  C   6.74775878125251     11.73818570020700     -9.93556045610022
  O   6.35670871624546     10.62256464491108     -9.58349503998152
  N   6.26297295116770     12.29378985156638    -11.11170608748606
  H   5.62942463930179     11.70521175340938    -11.63789099107328
  C   6.66042551847584     13.48619388496611    -11.65048073529940
  N   6.09995734395985     13.84331106190989    -12.81238631218002
  H   5.49538481063997     13.22305605626639    -13.32218552682030
  H   6.43584567422437     14.67333304176143    -13.26961200080380
  N   7.54051909398840     14.26916383637071    -11.07347698963851
  C   8.01642039746329     13.77922312173404     -9.91769373458694
  H   12.68858744586865     13.56296535153793    -10.10707266932875
  N   12.31832400195655     12.68680796922330     -9.77125040002022
  C   12.70020919806462     12.02774782298426     -8.63370942317530
  H   13.47460087319332     12.41144421638412     -7.98930235393683
  N   12.03467661202253     10.92607707065583     -8.45150348845380
  C   11.17198277627936     10.84949993061698     -9.52631285990746
  C   10.17975203708201      9.91186402102002     -9.86915326713050
  O   9.81642911279152      8.89024202648998     -9.25768906539435
  N   9.53933764663061     10.23380894168551    -11.04845316250573
  H   8.82756453910546      9.51126842485785    -11.30975623437847
  C   9.75000801558879     11.35937209440997    -11.79661343023584
  N   8.96302505230716     11.53669761735725    -12.85439460190766
  H   8.30463614781340     10.83605395732119    -13.14088817744057
  H   9.16003963927795     12.31510232235164    -13.45920156246026
  N   10.66529827458224     12.24903694649583    -11.47514212905300
  C   11.33705235137887     11.94947266243726    -10.35627365667817
  H   15.09089168645899     10.35320739661889    -10.75948724191436
  N   14.28948363595263      9.85290112679279    -11.11352012703880
  C   13.52864791559952     10.20517444885399    -12.19645470922380
  H   13.74459860764030     11.08602460343487    -12.77921209172906
  N   12.55389899517518      9.37319814592087    -12.41039404069095
  C   12.67655155561880      8.42010772965797    -11.41768002019615
  C   11.90708338577555      7.28575584912529    -11.10299435888975
  O   10.87278427674287      6.85677623608887    -11.64653211690536
  N   12.40820061229742      6.59999290262768    -10.01614396629500
  H   11.91392607833870      5.69330562094913     -9.86569024399904
  C   13.50309433131062      6.94254620845537     -9.27649313488030
  N   13.82975957515640      6.12103123456650     -8.27916539694669
  H   13.23576109534593      5.35297858401549     -8.01436395700168
  H   14.59128424555866      6.38872838177556     -7.67943260091913
  N   14.20477322843200      8.02614720113410     -9.53618203857990
  C   13.76255752229529      8.70976567837565    -10.60075028519874
  H   15.82460615284974      8.03201096237479    -13.75564625760780
  N   15.23420786032220      7.24103414678504    -13.54728982381376
  C   15.35841088343305      6.38977038260594    -12.47986037361137
  H   16.14567470015220      6.50903955351933    -11.75298262488872
  N   14.43909399828964      5.47115471264939    -12.46466168218697
  C   13.66842065121799      5.72899415553772    -13.58171055548796
  C   12.50236149507853      5.09776338643098    -14.07272891281046
  O   11.87444138304785      4.15220293892348    -13.59086724899573
  N   12.05369599518196      5.69125201990866    -15.24875753817230
  H   11.24287554649591      5.25738944797732    -15.67078276863890
  C   12.61065678524513      6.78313874498426    -15.85586926780511
  N   12.03288437464429      7.20550116848929    -16.99161728185431
  H   11.11270753095270      6.88927717317615    -17.24925102747912
  H   12.33774089938573      8.09013664538933    -17.36188500681036
  N   13.67021606033248      7.39170690382520    -15.38387574564003
  C   14.15642813269202      6.83107800155099    -14.26386199382696
  H   7.05760177510031      8.89776148478418    -18.08953704016339
  N   7.17324001625766      8.20017920350722    -17.36996867583903
  C   6.42891298480616      7.06249108011129    -17.21798481594379
  H   5.62056882268909      6.81903309460108    -17.88864175983065
  N   6.81184241025460      6.35071248222176    -16.19844905914660
  C   7.86233709853321      7.06041420645493    -15.64818015089805
  C   8.67575604126091      6.80666882009229    -14.52374156190400
  O   8.64976545104189      5.83778767536747    -13.75724591010533
  N   9.60009382191016      7.81026262777500    -14.30757003220435
  H   10.16742143995921      7.66274123680909    -13.45287749937888
  C   9.78438443084204      8.91111620456121    -15.09750373275083
  N   10.79432564271439      9.71890155836944    -14.76699570218026
  H   11.24604054065703      9.63306848734386    -13.87708862331074
  H   10.84900573554276     10.60060162250859    -15.24837580532040
  N   9.03426453161790      9.15321965545742    -16.15136812749003
  C   8.09818624604956      8.21756072202438    -16.37170739744575
  H   4.20756132373663      9.21340485475396    -15.27323875525311
  N   4.92417598953534      9.16569838219061    -14.56448371400640
  C   5.89091615605892     10.10301760563384    -14.32490586175603
  H   5.95935409475288     11.01057917277649    -14.90312829231290
  N   6.68203742055873      9.76296116396274    -13.35006790118087
  C   6.21475966381587      8.53364983402707    -12.92479562728136
  C   6.67393125634504      7.64743209074756    -11.93075260549629
  O   7.63131019877699      7.79268703046672    -11.15021524952872
  N   5.92588591352614      6.49174948470440    -11.87570342244259
  H   6.27335090055154      5.79972567137251    -11.19485917617529
  C   4.84454895861535      6.19767317902066    -12.65965236722402
  N   4.23485943798212      5.03368025605079    -12.42768482915374
  H   4.65111153628111      4.33029501384394    -11.84185350116505
  H   3.51309406418824      4.75704290223004    -13.07155030772110
  N   4.40115831126362      7.02321984323688    -13.58318863920455
  C   5.11608374975370      8.15022326005879    -13.68086098415599
  H   4.07462246683745     -0.33664321128437    -13.07652221106912
  N   4.97103032254574      0.05667029875513    -12.83281205115170
  C   5.83922739557692     -0.43121907967837    -11.89353648871734
  H   5.61787053101139     -1.31926633449795    -11.32365651662612
  N   6.91532015386658      0.29195773187306    -11.78797060287716
  C   6.74555678509123      1.31017580764106    -12.70630632827007
  C   7.53903984984966      2.43661940531057    -13.00719754621552
  O   8.63919000557494      2.75571204733595    -12.54060124026157
  N   6.94507882581768      3.25559446504207    -13.94782857971484
  H   7.45144584286797      4.14612900038492    -14.09238919956525
  C   5.74149462575057      3.04057705240781    -14.55896743608322
  N   5.36677578939437      3.94946623601906    -15.46177931549551
  H   5.88327285256056      4.79892241202614    -15.59709735993696
  H   4.44135000722900      3.86874387758042    -15.84714815714679
  N   4.99691195235045      1.98937019847567    -14.28706958996180
  C   5.53084435719382      1.17949321805036    -13.35852529550008
  H   3.98265364515827      0.68430081816777     -8.48283302829108
  N   4.48560012898785      1.44293081942396     -8.91751440800736
  C   4.17732904434084      2.04105002679291    -10.11001655417798
  H   3.33290725776633      1.72647217147759    -10.70151778484377
  N   5.00573573437135      2.99551081456656    -10.41333016562116
  C   5.91016166110251      3.02759423226647     -9.37089382311854
  C   7.01448578337714      3.86829933002618     -9.11535207652047
  O   7.48127562326398      4.77024821196169     -9.81968869773116
  N   7.60085740578408      3.59741138960716     -7.89202942051354
  H   8.34998556873513      4.27041137606511     -7.64614334549270
  C   7.21916960551260      2.61790069891902     -7.01689685761805
  N   7.92238850904105      2.51543374256859     -5.89071951139203
  H   8.74518011470827      3.06696604996494     -5.73137571752517
  H   7.68470026900383      1.77615331726249     -5.25253783371310
  N   6.20529589796247      1.81435925774076     -7.26122072998162
  C   5.58794096776538      2.06842524665603     -8.42389549784075
  H   3.73060628810977      4.75703988636585     -7.56192429277839
  N   4.41810430600014      5.49584815352977     -7.56856120333874
  C   4.62264106692215      6.39631731285223     -8.57936051101766
  H   4.02854417358688      6.38107839592043     -9.47843706042350
  N   5.59378920101798      7.22205374111228     -8.31661414622617
  C   6.04479291668711      6.84014625248947     -7.07124631762606
  C   7.08884297499046      7.38285180515976     -6.28901768083090
  O   7.80342178940287      8.34464577810283     -6.57229533945966
  N   7.24600886903460      6.68568757189737     -5.10045615715701
  H   7.98170655836849      7.01135216665491     -4.48658202354660
  C   6.49137643680209      5.60951466415190     -4.70933350971308
  N   6.77847782521310      5.08233556754677     -3.50998494375147
  H   7.64087916706966      5.31015900205229     -3.04404569020106
  H   6.33997697627377      4.20843677214879     -3.27229328917028
  N   5.51302890635906      5.11755679516859     -5.43104192702680
  C   5.32939215356859      5.76404365552882     -6.59476845706660
  Na  10.00135751058890      4.60429860960862    -12.36261461017291
  Na  9.15026579796875      6.39052997044241     -9.89554262910502
  Na  7.40660945102811      8.79292340226745     -8.89238821809020
*
