
! RIJCOSX CAM-B3LYP def2-TZVP def2/J D3BJ OPT FREQ CPCM(WATER) LARGEPRINT
%MAXCORE 30000
%GEOM
  Constraints
    {B 4 76 C} # G3N7-G10H21
    {B 4 75 C} # G3N7-G10N2
    {B 7 73 2.10 C} # G3O6-G10H1,2.10
    {B 7 72 3.10 C} # G3O6-G10N1,3.10
    {B 68 108 C} # G10N7-G14H21
    {B 68 107 C} # G10N7-G14N2
    {B 71 105 2.10 C} # G10O6-G14H1,2.10
    {B 71 104 3.10 C} # G10O6-G14N1,3.10
    {B 100 140 C} # G14N7-G19H21
    {B 100 139 C} # G14N7-G19N2
    {B 103 137 2.10 C} # G14O6-G19H1,2.10
    {B 103 136 3.10 C} # G14O6-G19N1,3.10
    {B 132 12 C} # G19N7-G3H21
    {B 132 11 C} # G19N7-G3N2
    {B 135 9 2.10 C} # G19O6-G3H1,2.10
    {B 135 8 3.10 C} # G19N7-G3N1,3.10
    {B 20 156 C} # G4N7-G20H21
    {B 20 155 C} # G4N7-G20N2
    {B 23 153 2.10 C} # G4O6-G20H1,2.10
    {B 23 152 3.10 C} # G4O6-G20N1,3.10
    {B 148 124 C} # G20N7-G15H21
    {B 148 123 C} # G20N7-G15N2
    {B 151 121 2.10 C} # G20O6-G15H1,2.10
    {B 151 120 3.10 C} # G20O6-G15N1,3.10
    {B 116 60 C} # G15N7-G9H21
    {B 116 59 C} # G15N7-G9N2
    {B 119 57 2.10 C} # G15O6-G9H1,2.10
    {B 119 56 3.10 C} # G15O6-G9N1,3.10
    {B 52 28 C} # G9N7-G4H21
    {B 52 27 C} # G9N7-G4N2
    {B 55 25 2.10 C} # G9O6-G4H1,2.10
    {B 55 24 3.10 C} # G9O6-G4N1,3.10    
    END
 MAXITER 5000
 END
%SCF
 MAXITER 5000
 END
%PAL
 NPROCS 30
 END


* xyz 3 1
   H       12.68600        0.93300       -5.30400
   N       12.38900        1.97800       -6.29600
   C       13.04200        3.16500       -6.49200
   H       13.86100        3.48300       -5.86500
   N       12.57800        3.86900       -7.48700
   C       11.53600        3.10900       -7.97000
   C       10.68000        3.38100       -9.06000
   O       10.81900        4.32300       -9.82300
   N        9.68400        2.42700       -9.22000
   H        9.08100        2.62500      -10.00600
   C        9.60200        1.30300       -8.48200
   N        8.65900        0.44000       -8.74500
   H        8.03600        0.65700       -9.51000
   H        8.63700       -0.40300       -8.19000
   N       10.45700        0.97400       -7.52100
   C       11.39700        1.94000       -7.26900
   H       11.86700        4.59300       -3.24300
   N       11.02700        4.69700       -4.43400
   C        9.92500        3.97100       -4.81700
   H        9.58400        3.09400       -4.28700
   N        9.33700        4.42100       -5.88400
   C       10.09100        5.55600       -6.18800
   C        9.88900        6.51800       -7.19700
   O        8.96100        6.47800       -7.97900
   N       10.82400        7.54200       -7.18800
   H       10.70200        8.16200       -7.97600
   C       11.84700        7.60800       -6.29300
   N       12.70100        8.59300       -6.34700
   H       12.58800        9.25200       -7.10500
   H       13.49300        8.56900       -5.72100
   N       12.07100        6.72000       -5.33200
   C       11.13800        5.72200       -5.32700
   H        8.86700       14.99000       -9.97000
   N        8.32500       13.65900       -9.58200
   C        8.78400       12.88300       -8.55200
   H        9.60500       13.19000       -7.92200
   N        8.12300       11.77600       -8.37600
   C        7.17200       11.77000       -9.40400
   C        6.11900       10.84300       -9.76500
   O        5.69800        9.83900       -9.21500
   N        5.40900       11.18900      -10.89600
   H        4.71700       10.51200      -11.18400
   C        5.62100       12.34400      -11.56100
   N        4.77800       12.67200      -12.50900
   H        4.03500       12.04500      -12.78200
   H        4.95600       13.56500      -12.94600
   N        6.53900       13.25100      -11.25500
   C        7.30400       12.91600      -10.16500
   H       13.33100       13.23800      -10.12100
   N       12.57400       12.00600       -9.83800
   C       12.69300       11.15400       -8.77600
   H       13.45400       11.29500       -8.02100
   N       11.81300       10.18800       -8.76400
   C       11.03900       10.43000       -9.86200
   C        9.89000        9.72900      -10.26700
   O        9.39700        8.78900       -9.67600
   N        9.32200       10.23700      -11.41500
   H        8.56000        9.66700      -11.75300
   C        9.77900       11.35100      -12.04000
   N        9.14100       11.75300      -13.10500
   H        8.37900       11.18100      -13.44000
   H        9.51500       12.56400      -13.57700
   N       10.85500       12.04900      -11.67100
   C       11.47000       11.53300      -10.55000
   H       16.59500        9.92700      -10.74000
   N       15.22900        9.47600      -11.01800
   C       14.39100        9.80100      -12.05300
   H       14.64000       10.55800      -12.78300
   N       13.28000        9.11800      -12.07700
   C       13.42600        8.24800      -11.00900
   C       12.57500        7.19400      -10.60000
   O       11.53500        6.88800      -11.15200
   N       13.04300        6.50600       -9.49600
   H       12.47600        5.69900       -9.27700
   C       14.24300        6.76700       -8.91300
   N       14.65500        5.95600       -7.97600
   H       14.03700        5.19900       -7.71800
   H       15.58900        6.09300       -7.61700
   N       15.07400        7.75200       -9.25800
   C       14.60100        8.46100      -10.33300
   H       13.85600        8.72200      -18.02100
   N       14.24200        8.15200      -16.71700
   C       15.23400        8.54500      -15.85600
   H       15.91600        9.34800      -16.08900
   N       15.30300        7.83600      -14.76200
   C       14.22800        6.94300      -14.87800
   C       13.72900        5.91300      -14.00600
   O       14.19100        5.53100      -12.93400
   N       12.60300        5.26900      -14.50200
   H       12.08700        4.68700      -13.85800
   C       12.06800        5.53900      -15.72800
   N       11.04300        4.85000      -16.14800
   H       10.67600        4.12100      -15.55300
   H       10.64700        5.07000      -17.05100
   N       12.52600        6.44300      -16.57900
   C       13.59200        7.13000      -16.08400
   H        7.95600        9.38900      -18.11900
   N        8.13100        8.51300      -16.93800
   C        7.38500        7.40900      -16.60900
   H        6.52100        7.11000      -17.18300
   N        7.79600        6.77600      -15.55700
   C        8.89400        7.51200      -15.13800
   C        9.75800        7.23200      -14.05700
   O        9.71700        6.23400      -13.36000
   N       10.73800        8.17700      -13.89200
   H       11.28000        8.05000      -13.04900
   C       10.94000        9.18500      -14.78600
   N       11.94800        9.98400      -14.57600
   H       12.46500        9.88300      -13.71400
   H       12.05600       10.76000      -15.21400
   N       10.17300        9.44300      -15.85200
   C        9.13000        8.56600      -15.98100
   H        4.46000        9.92700      -16.15500
   N        5.31800        9.62000      -15.01200
   C        6.37800       10.34800      -14.55900
   H        6.68500       11.26700      -15.03700
   N        6.95000        9.84600      -13.50200
   C        6.24100        8.69400      -13.26200
   C        6.44700        7.74600      -12.24000
   O        7.33800        7.81000      -11.42600
   N        5.51300        6.73500      -12.23200
   H        5.63300        6.08800      -11.46600
   C        4.52700        6.63100      -13.16600
   N        3.65500        5.66700      -13.05000
   H        3.75300        5.04600      -12.25900
   H        2.84100        5.72300      -13.64500
   N        4.33300        7.48700      -14.17600
   C        5.22900        8.52400      -14.16600
   H        4.59800       -0.15500      -13.02200
   N        5.63000        0.71500      -12.45600
   C        6.38700        0.54000      -11.33800
   H        6.25500       -0.32000      -10.69700
   N        7.24800        1.51400      -11.12300
   C        7.09200        2.34000      -12.17600
   C        7.81100        3.51800      -12.45000
   O        8.76600        3.92600      -11.82000
   N        7.34100        4.20000      -13.54100
   H        7.85100        5.05300      -13.71900
   C        6.35700        3.72200      -14.35200
   N        6.05700        4.46500      -15.37800
   H        6.53400        5.35100      -15.46400
   H        5.29400        4.22000      -15.99400
   N        5.69600        2.57300      -14.17300
   C        6.09300        1.92000      -13.01800
   H        3.02300        0.97500       -9.44100
   N        3.78800        2.22000       -9.63000
   C        3.62800        3.10200      -10.66800
   H        2.85600        2.99900      -11.41600
   N        4.48600        4.06700      -10.69300
   C        5.26900        3.81700       -9.56900
   C        6.37400        4.56300       -9.10100
   O        6.79300        5.56600       -9.63800
   N        6.96400        4.03500       -7.97300
   H        7.77400        4.55000       -7.65700
   C        6.52100        2.88300       -7.38200
   N        7.15400        2.47200       -6.31500
   H        7.94200        3.02000       -6.00100
   H        6.79900        1.64600       -5.85600
   N        5.47900        2.15000       -7.79400
   C        4.87900        2.67700       -8.91000
   H        3.21700        2.99200       -3.96400
   N        3.68700        3.89600       -5.02300
   C        3.06800        4.29400       -6.17800
   H        2.16000        3.83700       -6.54400
   N        3.65600        5.29500       -6.77000
   C        4.78300        5.55100       -5.97000
   C        5.81300        6.55700       -6.00800
   O        5.93700        7.53500       -6.72500
   N        6.76400        6.42300       -5.01700
   H        7.57800        7.01600       -5.10200
   C        6.67300        5.50900       -4.01800
   N        7.48300        5.60300       -3.00100
   H        8.16100        6.35100       -3.02300
   H        7.33000        4.98100       -2.22000
   N        5.70500        4.62000       -3.87900
   C        4.81000        4.67000       -4.91100
  Na       10.94700        4.88200      -12.32200     
  Na        9.16600        6.25200      -10.60900
  Na        7.35400        7.67000       -9.11000  
*
