
! RIJCOSX CAM-B3LYP def2-TZVP def2/J D3BJ TightSCF CPCM(WATER) LARGEPRINT
%MAXCORE 300000
%SCF
 MAXITER 5000
 END
%TDDFT
 NROOTS 300
 MAXDIM 10
 END
%PAL
 NPROCS 3
 END

* xyz 3 1
  H   12.20304019508102      1.23770958245303     -5.34291845726081
  N   12.23353283871043      1.87506709552053     -6.12443380534036
  C   13.14426374383630      2.87947587010973     -6.31389290215773
  H   13.93765673516215      3.06544255566293     -5.60794673574584
  N   12.92742705581029      3.54938525589814     -7.40679949265040
  C   11.81134021429411      2.95612246770064     -7.96629437827470
  C   11.09180433754197      3.23787307568882     -9.14082602782253
  O   11.31102224464363      4.10423483693795    -10.00521988699379
  N   10.00400833177151      2.40452863931817     -9.30072166075616
  H   9.46514525612480      2.59575496451338    -10.16441940459754
  C   9.62841984784046      1.39645107882781     -8.45834501266289
  N   8.54712870058088      0.69950935690339     -8.81697607145962
  H   7.95348275517826      1.01299929077860     -9.55940707014263
  H   8.18631592188878      0.03098216086064     -8.15737106343438
  N   10.30326751519538      1.11559738435545     -7.36428077313080
  C   11.36460266026967      1.91155186315498     -7.16883619108588
  H   11.75220305568366      4.73910603760531     -3.16625637908098
  N   11.16585006007075      4.77376075421925     -3.98652128698209
  C   10.14785621193640      3.91135182886401     -4.29324823930029
  H   9.88907979035536      3.08756920066192     -3.64750004284421
  N   9.56840621280918      4.20575855929708     -5.41871154836700
  C   10.24049320707456      5.32119587973207     -5.88099788667037
  C   10.07732941803462      6.09878663004581     -7.04188769187726
  O   9.25044774518511      5.96562014014352     -7.96209364532942
  N   10.97902618068360      7.14231641397326     -7.10712501356071
  H   10.85273276593004      7.74106159884846     -7.94502361102388
  C   11.92077449904154      7.44905757675698     -6.16373525820565
  N   12.64582079995660      8.54668413384987     -6.37756459856680
  H   12.58897875867844      9.05671929196608     -7.24115852668745
  H   13.40516586800117      8.73619657587516     -5.74595737979439
  N   12.09222275354441      6.71687285593810     -5.08306981804999
  C   11.24066913217557      5.68677789306776     -4.99118994675857
  H   12.85826298090259     13.32840162145995     -9.97899906716947
  N   12.47870171359956     12.42454563439878     -9.74068875910002
  C   12.86091405577322     11.63912768543543     -8.68592886495281
  H   13.63671813074157     11.94666217651721     -8.00332883769660
  N   12.19697267151699     10.52371483030126     -8.62797409006197
  C   11.33081082574762     10.57426462144250     -9.70333495688274
  C   10.36009727751127      9.66779534774573    -10.16521125363313
  O   10.03113374147012      8.56430728634582     -9.69352055778118
  N   9.70602960291268     10.12598870027799    -11.29051755007139
  H   8.95175897415395      9.49449723282603    -11.61319163679502
  C   9.91850347864740     11.32601642891645    -11.91249853313051
  N   9.13312157876875     11.60198268509796    -12.95297288713371
  H   8.49568673084044     10.92239827005815    -13.32885994596235
  H   9.32579875944365     12.43828157633521    -13.47720526821973
  N   10.83510363052846     12.17436834686692    -11.49571548837574
  C   11.49683956337025     11.75966801149051    -10.40623202714452
  H   15.78390879607389     10.44078984044114    -10.13910437828146
  N   15.07787320499811      9.90261218952674    -10.61829303617655
  C   14.44656284018438     10.25198525817466    -11.78167760276701
  H   14.67328519525416     11.17344478126255    -12.29361558648709
  N   13.57450554493282      9.36578909414850    -12.16198848204324
  C   13.63232178484395      8.38027319462504    -11.19381605614313
  C   12.92235025670609      7.17628277366975    -11.04148092828972
  O   12.05462067620899      6.68184709936679    -11.78078151648788
  N   13.27990059703070      6.49621193257623     -9.89584184057869
  H   12.73966993905359      5.62317569490570     -9.75665508801052
  C   14.22082880423199      6.88984881863076     -8.98582337915017
  N   14.41782447257707      6.07804383099741     -7.94829855894387
  H   13.92289682675479      5.21156718443295     -7.85079557985513
  H   15.08837213925626      6.35244615549232     -7.25142765905318
  N   14.89598319792103      8.01241143575397     -9.12309451576952
  C   14.56596073768689      8.70751186573657    -10.22071642948811
  H   8.00265542040285      9.45305147712966    -17.78395934423242
  N   8.11485946876128      8.70030453343888    -17.12168405451126
  C   7.34124920959401      7.57458139513981    -17.03775257361988
  H   6.51799124754873      7.40084398566520    -17.71193953521240
  N   7.71557330191139      6.78236901382930    -16.07685932738245
  C   8.79431327215497      7.42344245496790    -15.49458865800945
  C   9.61127217548504      7.07992399796137    -14.40265567742187
  O   9.57358053235469      6.06605638842460    -13.68572926845946
  N   10.56689606685872      8.03866756368210    -14.13783775588207
  H   11.18778155165322      7.77932048504425    -13.34735162137038
  C   10.75830716987130      9.19917870974042    -14.83282624103631
  N   11.76895996617568      9.97263801907493    -14.42934833107697
  H   12.24306392750481      9.79414404331255    -13.56662159575870
  H   11.85225725006142     10.88260302478644    -14.85024986161119
  N   9.99945664588398      9.53006607647972    -15.85611032394143
  C   9.05083884769421      8.62553699664854    -16.13809532577568
  H   4.39865644120506      9.71395476603496    -15.90071270465569
  N   5.08911764570584      9.59155352831617    -15.17539082926440
  C   6.14246872140561     10.42464346970122    -14.90916306663275
  H   6.32051719820556     11.31599437823867    -15.48907422616638
  N   6.86727938206521     10.00899530766375    -13.91374834959916
  C   6.26157941356774      8.83628583276430    -13.50234234499273
  C   6.57656722449419      7.92842340774344    -12.47613474693535
  O   7.50788622967573      7.97010886603351    -11.65155447571532
  N   5.69109602226188      6.87235323881286    -12.41713181066924
  H   5.89568895061042      6.21452844091517    -11.64045053468302
  C   4.59684750381550      6.69336374623481    -13.21759604945504
  N   3.83329657591878      5.63409335647182    -12.95431772537190
  H   4.08977457240704      4.95340392135489    -12.26037980750504
  H   3.06717029772525      5.44180259493394    -13.57662762249684
  N   4.29885917222063      7.53358670037135    -14.18736236634382
  C   5.14660872031044      8.56631961812347    -14.28377092634599
  H   4.24847791020829      0.48795556252427    -12.88512832639139
  N   5.11202702319787      0.87901189083224    -12.54013496978638
  C   5.81087908638864      0.45256269700458    -11.44272514287523
  H   5.47150486990758     -0.37679479330308    -10.84317730053811
  N   6.88442108794074      1.15474635308888    -11.23098609207446
  C   6.89001971157607      2.09919371867093    -12.24054672972197
  C   7.78214841269682      3.14362606654408    -12.54149812808928
  O   8.83566902136645      3.46894541982714    -11.96755502966887
  N   7.37951851219754      3.87659776591609    -13.63712236953165
  H   8.00991842553118      4.67304429073011    -13.84218439335069
  C   6.26961649340526      3.64893465819608    -14.40091748229531
  N   6.07999902565248      4.48147798613501    -15.42288612520428
  H   6.74243888351303      5.19979071404357    -15.65215613734651
  H   5.26942767095998      4.34286773047417    -16.00128854118422
  N   5.43541058676441      2.66382641269442    -14.13685817817526
  C   5.78288316440480      1.93962414413601    -13.06323033260616
  H   3.05858374708697      1.38127398049269     -8.91557862755997
  N   3.59448460859518      2.15409447807453     -9.28092369012298
  C   3.30017718583692      2.88510017666917    -10.40070404165306
  H   2.43187647079175      2.67272641699886    -11.00354445909706
  N   4.17278786383305      3.82106973163589    -10.62973148568103
  C   5.09443977054772      3.69863149645091     -9.60616848298723
  C   6.26400733363304      4.42024389673922     -9.30946916343602
  O   6.75527991823765      5.39161103634951     -9.91015853472021
  N   6.90486178296034      3.95058952974773     -8.18090442084704
  H   7.76127561979379      4.48506486849433     -7.94413637816308
  C   6.47657458876348      2.92182565607903     -7.38724550526844
  N   7.21164779054688      2.65512580318600     -6.30813806365880
  H   8.09916001541921      3.09939800588303     -6.15341992927839
  H   6.96655416570049      1.84520572759002     -5.76452278658015
  N   5.38438587250792      2.23829308213193     -7.65850126133195
  C   4.74279219524588      2.65946240427764     -8.75714671001027
  K   11.35093305292529      4.23890309408642    -12.73449754555431
  K   9.40074353263838      6.03015424211061    -10.81630708030082
  K   7.48477093097479      7.82289396165857     -8.92881930451806
*
