
! RIJCOSX CAM-B3LYP def2-TZVP def2/J D3BJ TightSCF CPCM(WATER) LARGEPRINT
%MAXCORE 150000
%SCF
 MAXITER 5000
 END
%TDDFT
 NROOTS 300
 MAXDIM 20
 END
%PAL
 NPROCS 6
 END


* xyz 0 1
   H   9.36243571045426      0.64948888218425    -24.25448725790602
   N   9.48933454518162      0.11055699175792    -23.41192861021095
   C   9.85531665550546     -1.20769068774194    -23.33425617593705
   H   10.05018400919324     -1.79221211189772    -24.21878335522998
   N   9.92426156641348     -1.63352204407912    -22.10807829108665
   C   9.58521668549015     -0.53856309897159    -21.33514477441339
   C   9.45814393891445     -0.39596471664695    -19.92614508469987
   O   9.61990093411281     -1.24583996570241    -19.05669051978581
   N   9.09805185570634      0.90807195760558    -19.57826676949733
   H   8.98163791490635      1.08371451942041    -18.59001883878366
   C   8.87296225611194      1.93653006964599    -20.45408538035090
   N   8.54486063732534      3.11955067317905    -19.93033066563549
   H   8.57812705768534      3.33162852967095    -18.93319124797158
   H   8.40506024966933      3.87801212231857    -20.57557940275456
   N   8.95938985786803      1.79259187904530    -21.75972603243579
   C   9.31375498641398      0.55351185982706    -22.13760609880360
   H   6.46439589900356     -1.13982903152669    -25.79097163572952
   N   6.33786517790437     -0.96477641742795    -24.80559302429871
   C   5.89328319586052      0.19808150889969    -24.23953201956127
   H   5.62826220093741      1.05544963734568    -24.83699049854014
   N   5.83933855075934      0.12694705226500    -22.94147029484790
   C   6.27473226680637     -1.14671085464378    -22.63688147723198
   C   6.44703274588372     -1.79681093324710    -21.38802169199548
   O   6.22856301467952     -1.36795609836160    -20.25886609963151
   N   6.93251263347383     -3.09214639708479    -21.55558184560670
   H   7.10691181934383     -3.60128869377299    -20.69907811354044
   C   7.23266080177854     -3.68551038069937    -22.74998074170675
   N   7.74777289952539     -4.92292024412758    -22.70128067958602
   H   7.74202036984125     -5.45912445654630    -21.85063806968132
   H   7.86671943796101     -5.41529749485420    -23.57013650040304
   N   7.05843109567134     -3.09057340328611    -23.90487885596551
   C   6.59068475451011     -1.83584764621967    -23.79208711302089
   H   4.82131556850493      5.76419772183908    -17.45830543933169
   N   5.04589587955420      4.81892744355449    -17.18821902550743
   C   5.26939049763455      4.37030224164988    -15.91477168287280
   H   5.20895648541955      5.02695480081909    -15.06209991971487
   N   5.55279065295270      3.10124698023631    -15.88141314297211
   C   5.52016712449017      2.69399764238539    -17.19947499298578
   C   5.76562848447224      1.42736613142425    -17.78612892386936
   O   6.05498767552674      0.36950823419221    -17.22994966981014
   N   5.64164619112295      1.47468587295170    -19.17032796808091
   H   5.81336901323328      0.60045341097663    -19.65638958266620
   C   5.33809586654846      2.58785141646213    -19.90652720444140
   N   5.26300776230523      2.41995445708555    -21.23173733725481
   H   5.61051681713294      1.58925970225101    -21.67166935926812
   H   5.16573461361513      3.24965777490104    -21.79213503299726
   N   5.10445466079692      3.76188387716922    -19.36309483599276
   C   5.20921452763220      3.75794650794130    -18.02436746209449
   H   8.36237162926348      6.44560185890428    -15.10191656295000
   N   8.53047673478547      5.57269158012413    -15.57817527150472
   C   8.41767757644669      5.34884394665096    -16.92281394416003
   H   8.13454379292533      6.13097405571662    -17.60839473997023
   N   8.68697355753932      4.11683072123441    -17.24136037560676
   C   8.99080875371694      3.49678987569865    -16.04676516874724
   C   9.33186668119654      2.15122261935812    -15.76127282047196
   O   9.44291865963789      1.21143045724691    -16.54529182561167
   N   9.54873560571497      1.95807711896688    -14.39993427919278
   H   9.77328913519991      1.01525628134372    -14.12172273608002
   C   9.43322633812839      2.91857516726410    -13.43054388776944
   N   9.66599051564867      2.53582830914696    -12.17231990645942
   H   10.04251713626870      1.62907315519463    -11.93374919109926
   H   9.63780930428781      3.24797070494510    -11.46289047532937
   N   9.10190235809647      4.16444312531432    -13.69558719883227
   C   8.89310771556040      4.39383890031156    -15.00149837068540
   H   11.27886241733206     -2.13132267877906     -8.84652394599234
   N   11.18357093264664     -1.64255636924046     -9.72380213493730
   C   10.79057398892358     -0.34353985991381     -9.88980058303202
   H   10.54114212645472      0.28685413602785     -9.05164871625535
   N   10.75955443684965      0.00640536927459    -11.14263347919444
   C   11.14983969747240     -1.12010728384273    -11.83711880123651
   C   11.30456038432816     -1.34782194384572    -13.22867213150823
   O   11.14001371376821     -0.56576136085881    -14.16034356729600
   N   11.70454657938627     -2.65750601704840    -13.48359623372668
   H   11.80752671813871     -2.89444471289352    -14.46148909927586
   C   11.92663172405846     -3.62462504488147    -12.54334087706171
   N   12.26160037474447     -4.84142297218568    -12.99567184436425
   H   12.50544918441182     -4.99240223509565    -13.95959437460507
   H   12.53177403945837     -5.53754401112536    -12.32213569390231
   N   11.80603790493812     -3.40769292204690    -11.25602931541280
   C   11.41447019000384     -2.15608766954936    -10.96210796954991
   H   7.77300314934241     -1.78248496913319     -9.97845294372942
   N   7.87306202591949     -2.06991008872330    -10.93960957498750
   C   8.36908439716572     -3.26698390051871    -11.38450020558327
   H   8.70258792150459     -4.02894401857744    -10.69883757491877
   N   8.38604618805008     -3.34767685523755    -12.68183260257240
   C   7.87496407505634     -2.13915064360965    -13.11557628590670
   C   7.63944645466665     -1.64539623521466    -14.42725522333439
   O   7.86896504852815     -2.19155904378913    -15.50094574830990
   N   7.06619438707422     -0.37202390642103    -14.39488500520288
   H   6.81249700435760      0.01569010050206    -15.30355615898485
   C   6.78161937778576      0.34918535094899    -13.26746933366233
   N   6.23501899417172      1.55563991385756    -13.44176897968831
   H   6.08277622689720      1.97639456030808    -14.35073405413091
   H   6.06379749856306      2.10871788247807    -12.61986464499601
   N   7.02088911961209     -0.10085804535386    -12.05452733295945
   C   7.54968067813288     -1.33625762510017    -12.03852006249188
*

