
! RIJCOSX CAM-B3LYP def2-TZVP def2/J D3BJ OPT FREQ CPCM(WATER) LARGEPRINT
%MAXCORE 30000
%GEOM
  Constraints
    {B 4 41 2.14 C} # G1N7-G5H1,2.14
    {B 4 40 3.05 C} # G1N7-G5N1,3.05
    {B 7 44 1.80 C} # G1O6-G5H21,1.80
    {B 7 43 2.80 C} # G1O6-G5N2,2.80
    {B 87 60 C} # G11O6-G6H21
    {B 87 59 C} # G11O6-G6N2
    {B 87 56 3.15 C} # G11O6-G6N1,3.15
    END
 MAXITER 5000
 END
%SCF
 MAXITER 5000
 END
%PAL
 NPROCS 30
 END


* xyz 0 1
   H       51.08000       24.16000       46.45000
   N       50.76000       22.83000       45.90000
   C       51.49000       21.67000       45.95000
   H       52.41000       21.67000       46.52000
   N       50.97000       20.68000       45.28000
   C       49.82000       21.26000       44.74000
   C       48.74000       20.66000       44.05000
   O       48.66000       19.54000       43.55000
   N       47.66000       21.51000       43.81000
   H       46.84000       21.09000       43.40000
   C       47.69000       22.84000       44.17000
   N       46.55000       23.51000       43.93000
   H       45.80000       23.09000       43.40000
   H       46.46000       24.41000       44.38000
   N       48.62000       23.41000       44.96000
   C       49.61000       22.52000       45.23000
   H       54.38000       23.55000       43.80000
   N       53.12000       23.32000       43.07000
   C       52.26000       24.24000       42.53000
   H       52.36000       25.31000       42.57000
   N       51.18000       23.67000       42.05000
   C       51.50000       22.32000       42.00000
   C       50.75000       21.25000       41.45000
   O       49.63000       21.27000       40.94000
   N       51.41000       20.03000       41.47000
   H       51.03000       19.20000       41.04000
   C       52.57000       19.90000       42.21000
   N       53.29000       18.79000       42.00000
   H       52.85000       18.04000       41.50000
   H       54.17000       18.75000       42.50000
   N       53.26000       20.87000       42.82000
   C       52.68000       22.09000       42.64000
   H       53.73000       13.44000       42.36000
   N       53.63000       14.42000       43.45000
   C       54.38000       14.46000       44.60000
   H       55.16000       13.72000       44.71000
   N       54.09000       15.36000       45.49000
   C       53.07000       16.01000       44.80000
   C       52.42000       17.18000       45.26000
   O       52.65000       17.96000       46.18000
   N       51.32000       17.51000       44.47000
   H       50.92000       18.38000       44.80000
   C       51.06000       16.88000       43.27000
   N       50.10000       17.44000       42.52000
   H       49.54000       18.17000       42.92000
   H       49.79000       16.97000       41.68000
   N       51.76000       15.86000       42.77000
   C       52.81000       15.52000       43.55000
   H       51.19000       11.55000       45.56000
   N       50.21000       12.23000       44.70000
   C       49.47000       11.74000       43.65000
   H       49.63000       10.77000       43.23000
   N       48.69000       12.62000       43.09000
   C       48.83000       13.70000       43.95000
   C       48.13000       14.94000       43.92000
   O       47.39000       15.40000       43.05000
   N       48.34000       15.69000       45.07000
   H       47.84000       16.57000       45.09000
   C       49.28000       15.35000       46.02000
   N       49.42000       16.31000       46.95000
   H       48.83000       17.13000       46.94000
   H       49.96000       16.06000       47.76000
   N       50.11000       14.30000       45.97000
   C       49.73000       13.49000       44.96000
   H       43.12000       21.15000       50.19000
   N       44.40000       20.45000       50.41000
   C       45.47000       20.93000       51.13000
   H       45.49000       21.89000       51.61000
   N       46.45000       20.07000       51.23000
   C       45.96000       18.91000       50.64000
   C       46.60000       17.67000       50.40000
   O       47.70000       17.31000       50.82000
   N       45.84000       16.80000       49.62000
   H       46.25000       15.94000       49.29000
   C       44.61000       17.15000       49.09000
   N       44.01000       16.10000       48.53000
   H       44.53000       15.23000       48.48000
   H       43.08000       16.14000       48.14000
   N       43.98000       18.30000       49.35000
   C       44.72000       19.15000       50.11000
   H       45.27000       24.03000       47.64000
   N       45.52000       22.65000       47.20000
   C       44.70000       21.85000       46.46000
   H       43.72000       22.18000       46.13000
   N       45.16000       20.64000       46.28000
   C       46.38000       20.64000       46.95000
   C       47.41000       19.67000       47.11000
   O       47.48000       18.55000       46.61000
   N       48.57000       20.15000       47.71000
   H       49.41000       19.59000       47.69000
   C       48.69000       21.43000       48.22000
   N       49.84000       21.77000       48.82000
   H       50.65000       21.18000       48.73000
   H       50.05000       22.71000       49.12000
   N       47.67000       22.29000       48.23000
   C       46.62000       21.87000       47.49000
*
