
! RIJCOSX CAM-B3LYP def2-TZVP def2/J D3BJ TightSCF CPCM(WATER) LARGEPRINT
%MAXCORE 150000
%SCF
 MAXITER 5000
 END
%TDDFT
 NROOTS 300
 MAXDIM 30
 END
%PAL
 NPROCS 5
 END

* xyz 0 1
   H   6.72090781499642      1.67281364511665     21.29213743310813
   N   6.74896105365427      1.14382537215604     22.15002837828508
   C   7.23370878273928     -0.12765698262818     22.30934830084018
   H   7.63872940853346     -0.68425691778635     21.47975501314927
   N   7.13264023969712     -0.54896289655901     23.53490961690467
   C   6.54769696450624      0.49885943930743     24.21965851762031
   C   6.18896021283711      0.63276050671747     25.58855296100010
   O   6.30802181423316     -0.18631464658091     26.49471171336115
   N   5.64240369314977      1.88912621906699     25.84920059070392
   H   5.39534605037404      2.07231336937538     26.80895335036229
   C   5.46557866328956      2.88801817747162     24.93397894131887
   N   4.97876192061128      4.04744887742477     25.39793299083910
   H   4.57817001197828      4.12779458582890     26.31754965663404
   H   4.72119531866379      4.74353508486936     24.71942949208375
   N   5.77740412597647      2.75987424200738     23.66415200918104
   C   6.31019358689576      1.56158658318382     23.36782578542703
   H   4.62155702896389     -0.94245999988983     19.47496212608710
   N   4.23277491307465     -0.76355017086527     20.38838969854174
   C   3.46907670385546      0.31389225977233     20.74886934107075
   H   3.20849045069615      1.08493355842514     20.04184894390476
   N   3.12164361760258      0.27793339515339     22.00195944990010
   C   3.68888285157399     -0.88019839411524     22.49130324519807
   C   3.66021607553306     -1.44405621718058     23.79063128550087
   O   3.08570021437241     -1.03087411266439     24.79452417601892
   N   4.39932453414517     -2.62265483567081     23.84639328850313
   H   4.42684348471869     -3.07290890112919     24.75183840428408
   C   5.08073017308148     -3.18789298073648     22.80394004187120
   N   5.73826327640921     -4.33058116449228     23.05841313164500
   H   5.90937703374641     -4.62908123902685     24.00360829768532
   H   6.34763860050851     -4.68348493222139     22.33994529880788
   N   5.08594855834641     -2.68001180962694     21.59618919271411
   C   4.38675674480484     -1.53675569524018     21.49626227939276
   H   -0.10012214131202      5.54374450919612     27.17734978979379
   N   0.03368723091877      4.60853300924170     27.52968770261089
   C   -0.34864452933245      4.13876290856531     28.75877033033969
   H   -0.85416001746255      4.76997055496171     29.47171864232000
   N   -0.02836207372546      2.89136855793048     28.93639234899797
   C   0.60000036493680      2.51918057867396     27.76364613997962
   C   1.21214624518832      1.29377434828665     27.38400936061557
   O   1.31482054112811      0.25677738433354     28.03044760295710
   N   1.74846392624401      1.37245568866043     26.09848169824827
   H   2.26702889859814      0.57016515417400     25.79679679443657
   C   1.72043432858015      2.47189837048829     25.28675442024278
   N   2.29640445915881      2.34677734797667     24.08555370674250
   H   2.54740733000208      1.45260927768939     23.69606371605594
   H   2.22651331449965      3.12575186498569     23.45386403342279
   N   1.17498341185714      3.61225542764203     25.64541603306477
   C   0.64483916232574      3.58188835443534     26.88049416261180
   H   2.15889959621683      7.17926415098212     29.94439247725871
   N   2.58955604575785      6.41485961766437     29.44669831257626
   C   3.15455039444668      6.47266051812492     28.20043328234460
   H   3.18585002181935      7.39039330148866     27.63555815702216
   N   3.62484118840336      5.32274691749150     27.81516554337573
   C   3.35443383267784      4.46486087975030     28.86076518288847
   C   3.60569011045714      3.07926307995914     29.00329617147966
   O   4.14473795348111      2.31393565922654     28.20598527362156
   N   3.14097697965018      2.60177122235023     30.22375856892542
   H   3.27476289310514      1.61196448970477     30.38428719153402
   C   2.50396601083146      3.34490761697435     31.17952183102265
   N   2.13845502567944      2.70103302751935     32.29823004326322
   H   2.14678774749881      1.69653006297939     32.34193381592954
   H   1.55682116188762      3.19553510643659     32.95320983559436
   N   2.27447345507423      4.62866335692345     31.05094856174073
   C   2.70785320783776      5.13268423571980     29.88316631703096
*
