
! RIJCOSX CAM-B3LYP def2-TZVP def2/J D3BJ OPT FREQ CPCM(WATER)
%MAXCORE 30000
%GEOM
  Constraints
    {B 68 60 C} # G10N7-G6H21
    {B 68 59 C} # G10N7-G6N2
    {B 71 57 C} # G10O6-G6H1
    {B 71 56 C} # G10O6-G6N1
    {B 52 12 C} # G6N7-G1H21
    {B 52 11 C} # G6N7-G1N2
    {B 55 9 2.10 C} # G6O6-G1H1,2.10
    {B 55 8 C} # G6O6-G1N1
    {B 20 44 C} # G2N7-G5H21
    {B 20 43 C} # G2N7-G5N2
    {B 23 41 2.10 C} # G2O6-G5H1,2.10
    {B 23 40 3.10 C} # G2O6-G5N1,3.10
    {B 36 92 C} # G5N7-G11H21
    {B 36 91 C} # G5N7-G11N2
    {B 39 89 2.10 C} # G5O6-G11H1,2.10
    {B 39 88 3.10 C} # G5O6-G11N1,3.10
    END
 MAXITER 5000
 END
%SCF
 MAXITER 5000
 END
%PAL
 NPROCS 30
 END



* xyz 0 1
   H        9.52300        1.38300      -25.00400
   N        9.56400        0.60300      -23.75200
   C        9.83700       -0.73400      -23.60000
   H        9.92700       -1.41000      -24.43800
   N        9.98100       -1.11900      -22.36200
   C        9.74600        0.05900      -21.63500
   C        9.75500        0.31700      -20.22500
   O       10.01900       -0.47000      -19.32600
   N        9.43700        1.62000      -19.88900
   H        9.38300        1.80600      -18.89800
   C        9.24800        2.60300      -20.81000
   N        8.88200        3.79100      -20.40900
   H        8.86900        3.96800      -19.41400
   H        8.65600        4.48600      -21.10500
   N        9.24800        2.42000      -22.12400
   C        9.49500        1.11900      -22.47800
   H        6.19900       -1.72600      -25.24700
   N        6.41600       -1.36600      -23.82700
   C        6.09900       -0.20200      -23.16500
   H        5.73000        0.68200      -23.66400
   N        6.26300       -0.25200      -21.87600
   C        6.71200       -1.55100      -21.66300
   C        7.00600       -2.20500      -20.43600
   O        6.88900       -1.72200      -19.32400
   N        7.42500       -3.51500      -20.56700
   H        7.71400       -3.96700      -19.71200
   C        7.49400       -4.12600      -21.78400
   N        7.91000       -5.36800      -21.81000
   H        8.18700       -5.86200      -20.97300
   H        7.99600       -5.75200      -22.74000
   N        7.18300       -3.56700      -22.95700
   C        6.80600       -2.25300      -22.83800
   H        4.72400        5.90800      -17.04700
   N        5.21100        4.54000      -16.79800
   C        5.49200        3.94900      -15.60300
   H        5.41500        4.48300      -14.66700
   N        5.84100        2.68300      -15.69800
   C        5.80200        2.43100      -17.03300
   C        6.07600        1.20900      -17.69400
   O        6.32200        0.15400      -17.12700
   N        6.03500        1.29800      -19.07600
   H        6.24900        0.44100      -19.56500
   C        5.64900        2.44000      -19.72400
   N        5.61400        2.46300      -21.02700
   H        5.87700        1.62800      -21.53000
   H        5.23100        3.29400      -21.45500
   N        5.34200        3.58600      -19.12700
   C        5.45700        3.54100      -17.75900
   H        8.41300        6.79400      -15.16300
   N        8.55600        5.53200      -15.90300
   C        8.72000        5.32400      -17.24700
   H        8.59900        6.11300      -17.97500
   N        9.05500        4.10500      -17.56000
   C        9.10200        3.45500      -16.33700
   C        9.39600        2.09700      -16.03900
   O        9.66300        1.22800      -16.85500
   N        9.38500        1.80900      -14.69000
   H        9.65600        0.86000      -14.47100
   C        9.15900        2.75400      -13.73600
   N        9.30800        2.44500      -12.47900
   H        9.58300        1.50000      -12.25100
   H        9.20500        3.20500      -11.82100
   N        8.83200        4.01900      -13.97400
   C        8.82800        4.31600      -15.30800
   H       11.34100       -2.30600       -9.33100
   N       10.96200       -1.80700      -10.67200
   C       10.24500       -0.66300      -10.90000
   H        9.87200       -0.04500      -10.09700
   N       10.06200       -0.38000      -12.15500
   C       10.69700       -1.42400      -12.81800
   C       10.86000       -1.64500      -14.21700
   O       10.52400       -0.92400      -15.12900
   N       11.50400       -2.80000      -14.56500
   H       11.54700       -2.97700      -15.55900
   C       12.03300       -3.62700      -13.63300
   N       12.71400       -4.64500      -14.09000
   H       12.77100       -4.86400      -15.07400
   H       13.16700       -5.18000      -13.36300
   N       11.94200       -3.45500      -12.31000
   C       11.23700       -2.33200      -11.93900
   H        6.87900       -1.56100       -9.11900
   N        7.17800       -2.00000      -10.48800
   C        7.54400       -3.23400      -10.96000
   H        7.79800       -4.06100      -10.31300
   N        7.54600       -3.32100      -12.26000
   C        7.17500       -2.03500      -12.68100
   C        6.95900       -1.47000      -13.98300
   O        7.01200       -2.03900      -15.06600
   N        6.60400       -0.12400      -13.95100
   H        6.51000        0.29300      -14.86600
   C        6.45100        0.57900      -12.80500
   N        6.06800        1.82600      -12.86600
   H        5.96600        2.24600      -13.77900
   H        5.99400        2.34200      -12.00000
   N        6.56100        0.08200      -11.57900
   C        6.95600       -1.22500      -11.59100
*

